;Arquivo de configuracao de certificados digitais
;Alteracao permitida apenas pela Softdib

;pacote em uso
pacote=PL_008i2_CFOP_EXTERNO
pacote_mdfe=PL_MDFe_100a 

;PNEUPLUS
08930095000154=PP1323

;FNC                   
05455648000176=FNC2016x

;EKRON
10650820000182=1234

;BHS
02898246000158=123456

;BHS PACAJUS
02898246000310=123456

;FITASPACK               
12996519000150=fitaspack

;SOFTDIB
84818889000109=12345

;BERLANDA- MANAUS
11476285000239=1234

;POLYFIT
81067860000144=10731073

;K3
17974421000116=k313

;KAPP
08699477000119=notafiscal

;PLASFLEX
09041943000137=multilit102030

;DICAS
03656197000100=dicas2016

;TOMASONI
01956679000150=1234

;RMK
07918416000132=14192016

;REMOCARGA NOVO
07817840000190=123456

;SX
02799907000198=1234
;TRATORACO
00111430000180=1234

;BRH
17047353000140=1234

;HDF
07121340000110=INFO@brh#2015

;TRATORACO
01956679000150=1234

;CAVAZZANI
09593770000160=1234

;CAVAZZANI BACACHERI             
09593770000321=1234

;CAVAZZANI DEPOSITO            
09593770000240=1234

;CAVAZZANI FAZENDINHA
09593770000402=1234

;LATINEX
05540409000114=665708

;ADS
81660862000142=1234

;BERTANI
12090054000174=1234

;COLONIA
82206004000195=1234

;IPORANGA
22065162000140=SILVIO

;BERLANDA
11476285000158=1234

;VIANMAQ
01631022000112=1234

;VIANMAQ TELEMACO
01631022000384=1234

;MELYANE
76490002000178=mELYANE

;MULTILIT
72071541000200=10731073

;NITAPLAST IND E COM DE PLASTICOS INDUSTRIAIS LTDA
82295817000107=teste