;Arquivo de configuracao de certificados digitais
;Alteracao permitida apenas pela Softdib

;pacote em uso

;pacote=PL_009_V4
pacote=PL_008i2_CFOP_EXTERNO
pacote_mdfe=PL_MDFe_100a
pacote_dnfe=PL_NFeDistDFe_102


;NITAPLAST
82295817000107=LARS18TH

;NJPLASTICOS
82195744000173=Njplasticos01

;PNEUPLUS
08930095000154=pp1323

;FNC                   
05455648000176=fnc.2019

;EKRON
10650820000182=1234

;BHS
02898246000158=123456

;BHS PACAJUS
02898246000310=123456

;FITASPACK               
12996519000150=Fitaspack3474

;SOFTDIB
84818889000109=1234

;BERLANDA
11476285000158=berlanda2010

;BERLANDA- MANAUS
11476285000239=berlanda2010

;POLYFIT
81067860000144=10731073

;K3
17974421000116=k313

;KAPP
08699477000119=12345678

;PLASFLEX
09041943000137=10731073

;DICAS
03656197000100=1234

;TOMASONI
01956679000150=TOMA1997

;RMK
07918416000132=barao1848

;REMOCARGA NOVO
07817840000190=CS@2022

;SX
02799907000198=027999

;TRATORACO
00111430000180=trat010621

;BRH
17047353000140=brh@2019

;HDF
07121340000110=140419

;TRATORACO
01956679000150=TOMA1997

;CAVAZZANI
09593770000160=1234

;CAVAZZANI BACACHERI             
09593770000321=

;CAVAZZANI DEPOSITO            
09593770000240=1234

;CAVAZZANI FAZENDINHA
09593770000402=

;LATINEX
05540409000114=030201

;ADS
81660862000142=1234

;COLONIA
82206004000195=coloniainab

;IPORANGA
22065162000140=12345678

;BERLANDA
11476285000158=berlanda2010

;VIANMAQ
01631022000112=kbiciber

;VIANMAQ TELEMACO
01631022000384=CTVIAN0081

;MELYANE
76490002000178=mELYANE

;MULTILIT
72071541000200=72071541

;PLASTIZAN IND E COM DE EMBALAGENS PLASTICAS LTDA
01179052000130=pl@stizan


;MULTIVAC DO BRASIL SISTEMAS PARA EMBALAGENS LTDA
10259645000105=Multivac2021

;MULTIVAC DO BRASIL - CAMPINAS                   
10259645000288=multivac123


;BRW SUPRIMENTOS ESCOLARES E ESCRITORIO LTDA.
07933371000175=asenhaestaoculta



;ELIANA MARIA CAMPOS RIZZIERI ME
08445452000199=123456


;CURIPEL EMBALAGENS LTDA
82574062000252=




;X IMPORT E EXPORT LTDA
13089971000100=

;AXION FERRAMENTAS E MATERIAIS LTDA
02674103000162=GU5rJz


;MOLDESPUMA INDUSTRIA DE COLCHOES LTDA
79955977000112=moldespuma

;RCD BRASIL LTDA
17313041000130=RCDBRASIL


;BRW SUPRIMENTOS ESCOLARES E ESCRITORIO LTDA.
07933371000175=asenhaestaoculta



;ELIANA MARIA CAMPOS RIZZIERI ME
08445452000199=123456


;CURIPEL EMBALAGENS LTDA
82574062000252=




;X IMPORT E EXPORT LTDA
13089971000100=

;AXION FERRAMENTAS E MATERIAIS LTDA
02674103000162=GU5rJz


;MOLDESPUMA INDUSTRIA DE COLCHOES LTDA
79955977000112=moldespuma

;RCD BRASIL LTDA
17313041000130=RCDBRASIL

;BERTANI DISTRIBUIDORA DE ALIMENTOS LTDA
12090054000174=2311

;GLOBAL TECNOLOGIA EIRELI
00257348000169=global2021

;RCDSA
04103980000109=1234


;FITAX COMERCIO DE EMBALAGENS LTDA
07205232000125=33768040


;SERRALHERIA STRELESKI LTDA
12647068000146=STRELESKI2016

;DISEG COMERCIO DE EQUIP DE SEGURANCA LTDA
05217295000176=1234


;GOLD DISTR. DE PEÇAS INDUSTRIAIS LTDA
25067277000162=gs35255me


;MULTILIT INDUSTRIA E COMERCIO LTDA
81067860000225=10731073

;SERRAMAR COMERCIO DE ALIMENTOS LTDA EPP
13131708000123=serramar123

;REALGEMS DO BRASIL IND DE COSM LTDA
76152008000135=BR1122

;CARPLUS SERVICE CENTER LTDA - ME
10703580000137=Rogerio072019


;ROSA MISTIC COSMETICOS LTDA
13505431000151=Rosamistic2022


;PANIFICADORA DIAS SOARES LTDA ME
81399339000104=123456


;C.VALE - COOPERATIVA AGROINDUSTRIAL
77863223000107=

;C.VALE - COOPERATIVA AGROINDUSTRIAL
77863223000298=

;C.VALE - COOPERATIVA AGROINDUSTRIAL
77863223000700=


;BONASA ALIMENTOS S/A - MATRIZ
03573324000298=serasa12


;BONASA ALIMENTOS S/A - ESTAB 502
03573324000450=serasa12

;BONASA ALIMENTOS S/A - ESTAB 521 - 21
03573324001855=serasa12


;BONASA
19100000000000=


;BONASA
03573324000107=serasa12


;BONASA ALIMENTOS S/A - ESTAB 510 - 10
03573324001502=serasa12

;LEOGAP INDUSTRIA E COMERCIO DE MAQUINAS LTDA
76520758000112=LEOGAP2021


;BVTECHNOLOGIE COMÉRCIO E SOLUÇÕES PARA SAÚDE LTDA
27581275000112=BVTECH


;MOTORCRAZY COMPONENTES AUTOMOTIVOS LTDA
10876168000461=123456


;MOTORCRAZY COMPON. AUTOMOTIVOS LTDA
10876168000119=123456


;BONASA ALIMENTOS S/A - ESTAB 532 - 32
03573324000530=serasa12


;BONASA ALIMENTOS S/A - ESTAB 514 - 14
03573324000611=serasa12

;BONASA ALIMENTOS S/A
03573324000700=serasa12


;BONASA ALIMENTOS S/A - ESTAB 512 - 01
03573324000883=serasa12


;BONASA ALIMENTOS S/A - ESTAB 517 - 03
03573324000964=serasa12

;BONASA ALIMENTOS S/A - ESTAB 523 - 04
03573324001006=serasa12

;BONASA ALIMENTOS S/A - ESTAB 522 - 05
03573324001189=serasa12

;BONASA ALIMENTOS S/A - ESTAB 527 - 06
03573324001260=serasa12

;BONASA ALIMENTOS S/A - ESTAB 535 - 07
03573324001340=serasa12

;BONASA ALIMENTOS S/A - ESTAB 536 - 08
03573324001421=serasa12

;BONASA ALIMENTOS S/A - ESTAB 513 - 13
03573324001693=serasa12


;BONASA ALIMENTOS S/A - ESTAB 518 - 18
03573324001774=serasa12


;BONASA ALIMENTOS S/A - ESTAB 524 - 24
03573324001936=serasa12


;BONASA ALIMENTOS S/A - ESTAB 525 - 25
03573324002070=serasa12

;BONASA ALIMENTOS S/A - ESTAB 534 - 34
03573324002231=serasa12

;BONASA ALIMENTOS S/A - ESTAB 537
03573324002312=serasa12

;BONASA ALIMENTOS S/A - ESTAB 515 - 02
03573324002401=serasa12

;BONASA ALIMENTOS S/A - ESTAB 516 - 16
03573324002584=serasa12

;BONASA ALIMENTOS S/A - ESTAB 519 - 19
03573324002665=serasa12

;BONASA ALIMENTOS S/A - ESTAB 520 - 20
03573324002746=serasa12

;BONASA ALIMENTOS S/A - ESTAB 526 - 26
03573324002827=serasa12


;BONASA ALIMENTOS S/A - ESTAB 533 - 33
03573324003041=serasa12

;BONASA ALIMENTOS S/A - ESTAB 529 - 29
03573324003122=serasa12


;BONASA ALIMENTOS S/A - ESTAB 503
03573324003394=serasa12


;BONASA ALIMENTOS S/A - ESTAB 528 - 28
03573324003475=serasa12

;BONASA ALIMENTOS S/A - ESTAB 505
03573324003556=serasa12

;SUMMUS EMERGENCIAS MEDICAS LTDA.
81746745000104=1234

;CARPA DO BRASIL LTDA ME
10698236000105=35628383

;CAVAZZANI E DERETTI COMERCIAL LTDA
09593770000674=1234


;PNEUPLUS TECNOLOGIA AUTOMOTIVA LTDA
08930095000235=1234

;PNEUPLUS TECNOLOGIA AUTOMOTIVA LTDA
08930095000316=1234

;PNEUPLUS TECNOLOGIA AUTOMOTIVA LTDA
08930095000405=

;MARPLUS SERVICOS AUTOMOTIVOS LTDA
13779747000131=marplus1323

;COSMOS WHEELS LTDA
10636688000154=1234

;CSR DISTRIB DE ACESSORIOS PARA VEICULOS LTDA
08897153000195=wheels000

;PLASTIVINI IND. E COM.DE EMBALAGENS PLAST.EIRELE
24777460000199=123456

;KOPLAST COMERCIO DE ARTEFATOS DE PLASTICO LTDA-ME
77986453000163=1234


;NATUPHITUS IND. E COM DE COSMETICOS LTDA
73697666000114=@Natu01@


;BS MALDANER SERVICOS DE CABELEIREIROS - EIRELI
16682078000173=123456

;AXION FERRAMENTAS E MATERIAIS LTDA
27440377000118=274403

;COLD AIR IND. COM. SIST REFRIG LTDA
03662361000191=1234


;COSMOS WHEELS LTDA - ME
10636688000235=rokabruba1103


;LYKE COMERCIO DE MATERIAIS PARA ESCRITORIO-EIRELI
08796949000151=

;J. TORRES AUTO CENTER LTDA
02547003000175=32771451


;PERSIANAS ROLLER STAR BRASIL S.A
09622048000106=050961

;DONEDA LOCACAO E MANUTENCAO DE EQTOS IND. LTDA
11352160000116=DONEDA2019


;CR HOZELLO BUONA VITA COSMETICOS LTDA
80394042000193=1234

;R4 CENTRO AUTOMOTIVO LTDA - ME
25398177000119=florzinha


;EMPORIO DOIS AMIGOS LTDA-ME
28285595000198=1234


;MOTORCRAZY COMPON. AUTOMOTIVOS LTDA
10876168000380=123456


;MOLERI DISTRIBUIDORA DE ACESSORIOS AUTOMOV.EIRELI
29463962000169=moleri


;COSMOS WHEELS LTDA - ME
10636688000316=1234

;ALVES E FLORES LTDA
10409828000151=artctba17

;BHS CORRUGATED SOUTH AMERICA LTDA
02898246000239=123456

;DAINAPECK DISTR.DE COM. AUTOMOTIVO LTDA
07262105000320=1234


;VIANMAQ EQUIPAMENTOS LTDA
01631022000201=kbiciber

;CAVAZZANI E DERETTI COMERCIAL LTDA
09593770000593=1234


;NP IND E COM DE EQUIP E MAT PLASTICOS LTDA
13403678000167=LARS18TH


;SOLLUZ ALIMENTOS EXPRESSO LTDA
26329304000190=181290

;DCL ADMINISTRACAO E PARTICIPACOES LTDA
76496199000152=17101945


;ROMA COM ATAC DE ART DE ARMARINHOS EIRELI LTDA
15596024000122=

;FLEX AUTOMOTIVA LTDA
20042802000171=12345678


;PH DISTRIBUIDORA COSMETICOS LTDA
05822216000156=ph2018

;EMBALAGENS INDUSTIAIS ADESI COATING LTDA
11325407000105=Leda04


;PERSONALIZE PAPEIS LTDA
10678646000186=pers1234

;FORTFLEX COMERCIO PECAS LTDA.
07405353000110=131094

;ECKISIL FREIOS SISTEMAS AUTOMOTIVOS LTDA
86797115000174=


;J.V. MALDANER COMERCIO DE COSMETICOS EIRELI
26361804000290=123456

;SERRAMAR COMERCIO DE ALIMENTOS LTDA
31133728000115=123456


;J V MALDANER COMERCIO DE COSMETICOS LTDA-ME
26361804000100=123456


;CASA DA FRANCA-COM.E IMP.DE PROD.ALIM. LTDA-EPP
85038156000114=1234


;ROTALUX IMPORT E COM DE PROD DE SINALIZACAO-EIRELI
24172800000158=Gp302720

;AZZO INDUSTRIA DE CONSERVAS LTDA
04003928000180=123456


;RMK COMERCIO DE PNEUS LTDA
07918416000213=rmk1419


;CARPLUS SERV. CENTER LTDA- KENNEDY
10703580000480=123456


;RMK COMERCIO DE PNEUS LTDA
07918416000485=rmk1419


;MULTI BARRAS INDUSTRIA E COMERCIO EIRELLI
27404236000140=1234


;MATIUCI COMERCIO E SERVICOS AUTOMOTIVOS EIRELI
32846303000116=MATIUCI123

;GISELA SANTORO BRUDER
07492174000168=

;DIEGO JOSE CHRISTEN - ME
15268092000162=123456

;JER COMERCIO DE PRODUTOS DE LIMPEZA LTDA EPP
07547454000126=ciadalimpeza


;BHS CORRUGATED SOUTH AMERICA LTDA
02898246000409=123456


;MULTILIT FIBROCIMENTO LTDA - RECIFE
72071541000464=10731073


;PASE INDUSTRIA DE EQUIPAMENTOS ELETRONICOS EIRELI
10784737000104=popular


;FIENG - SANTA FELICIDADE
82231739000179=a82231739


;DCL SHOPPING CENTER LTDA
23509947000128=17101945

;SAO JORGE DISTRIBUIDORA DE ALIMENTOS LTDA
08370606000120=1234


;MABRUK DISTRIBUIDORA LTDA
07560310000100=1234

;VIANMAQ EQUIPAMENTOS LTDA
01631022000465=kbiciber

;PRO MASTER DISTRIB MATERIAIS PLASTICOS - EIRELI
17991244000186=1920271218

;OMZ INDUSTRIA DE MATERIAL PLASTICO LTDA EPP
10257833000196=30351915


;L M GONCALVES - ME
27480175000108=1234


;FORSETI USINAGEM E AUTOMACAO LTDA
12040842000156=@12040

;NAU CONTROLES E SIST INTEGR AR CONDIC REFRIG LTDA
29662663000153=1234

;SLB SPRENGER ECOTRAT SIST E HIDROTRATAM - ME
18400873000157=123456

;SAAR E MIGLIORINI FABRICACAO DE ELETROCALHAS LTDA
35629600000106=1234


;COSMEZI DO BRASIL COMERCIO DE COSMETICOS LTDA ME
10214616000119=30266200


;ASPEN MARKETING DO BRASIL LTDA
72460355000174=30266200

;IMPERIUM CONDUTORES ELETRICOS E METALURGICA-EIRELI
20503659000178=123456


;DAINAPECK DISTRIB.DE COMPON. AUTOMOTIVOS LTDA
07262105000168=1234


;ALEXANDRIA INDUSTRIA DE GERADORES S.A.
28839121000140=ALE14092017


;MK RODAS COM E DIST DE ACESSORIOS AUTOMOTIVOS LTDA
19355602000190=


;CR COLLA IMPORTACAO E EXPORTACAO LTDA
17126205000110=123456

;RMF MAQUINAS E FILMES DO BRASIL LTDA
35644378000102=123456


;ROTALUX IMP. E COM. DE PRODUTOS DE SINAL. EIRELI
34275740000152=jb995358

;BARAO AUTOCENTRO LTDA - FAZENDA
07918416000728=12345678


;ACX - TREINAMENTO
17055652000126=123456

;H PHARM IND DE MEDICAMENTOS VETERINARIOS LTDA
13540038000107=13540038


;JOSE LEONIDAS FERRARINI E FILHO LTDA
01204762000172=1234

;BARAO AUTOCENTRO LTDA - SJ PINHAIS
07918416000647=12345678


;PROTFLEX PRODUTOS INDUSTRIAIS EIRELI
09505300000105=19851203


;ONDA PRO IMPORT DE MULTI VARIED E SUPRIMENTOS LTDA
80574965000127=1234

;VGR SERVICOS AUTOMOTIVOS LTDA
10703580000641=Rogerio072019


;VGR SERVICOS AUTOMOTIVOS LTDA
10703580000307=1234


;BARAO AUTOCENTRO LTDA - CENTRO SJP
07918416000302=1234


;VGR SERVICOS AUTOMOTIVOS LTDA
10703580000722=12345678


;VGR SERVICOS AUTOMOTIVOS LTDA
10703580000560=12345678


;ALEXANDRIA INDUSTRIA DE GERADORES S/A
28839121000221=ALE14092017


;CLEO SERVICOS AUTOMOTIVOS EIRELI
33755040000100=C123


;ZIEGEN COMERCIO DE ARTIGOS ESPORTIVOS LTDA
37449953000141=motorex1015

;BMFD ADMINSTR EMPREENDIMENTOS E PARTICIP LTDA
81104770000186=17101945

;MULTILIT FIBROCIMENTO LTDA SAO LUIS
72071541000545=10731073


;A S COSTA REPRESENTACOES COMERCIAIS LTDA
00659115000192=1234


;EMPORIO DA CASA ALIMENTOS LTDA
35561071000148=181290


;VALENTE AGROPECUARIA S/A
76534213000165=1234


;SANTO ANTONIO DISTRIBUIDORA DE ALIMENTOS LTDA
08370598000112=1234


;WATERS SERVICES LTDA
38648188000151=popular22


;ANZEN COMERCIO DE PRODUTOS ELETRONICOS LTDA
09264081000101=

;PLASCHEM COMERCIO DE RESINAS TERMOPLASTICAS LTDA
35222724000164=329983


;LION COM E MANUTENCAO DE MAQUINAS INDUSTRIAIS LTDA
20646763000383=AJV14280

;PESCADOS COLOMBO LTDA
12273936000175=003145

;LION EQUIPAMENTOS LTDA
20646763000111=142800


;VINTER PLASTICOS INDUSTRIAIS LTDA
05528325000165=1234


;MACHINE AND SERVICE CORRUGATED URUGUAY S.A
00218334130013=

;H F E COM DE PROD HIDRAUL, FERRAG E MAT ELETR LTDA
43588814000100=43588814

;ESPACO DA MULHER LTDA
40689943000198=21692877


;REALFIX IND E COM DE TINTAS E VERNIZES L
73244626000117=Real1995


;
00000000000000=

;MEDPRO COMERCIO DE PRODUTOS HOSPITALARES LTDA-ME
20259895000190=20259895

;LUCIANITA CHEROBIM TROMBINI
00040518558991=lucianita@123
=


;JLF LOCACOES DE BENS MOVEIS LTDA
14030816000172=14030816


;TRAPICHE COMERCIO DE PRODUTOS ALIMENTICIOS EIRELI
30369545000130=123456


;TRAPICHE COMERCIO DE PRODUTOS ALIMENTICIOS EIRELI
30369545000211=123456


;MEDSIDE COMERCIO DE PRODUTOS HOSPITALARES LTDA
28796078000183=28796078

;WP RECICLAGEM PLASTICA LTDA
39958413000119=B2t@119


;MSO E VFM PRODUTOS VETERINARIOS LTDA.
36992866000254=22910072


;JF PESCADOS LTDA
10917997000100=003145


;MAQPASS COM DE PECAS PARA EMPILHADEIRAS LTDA
24751995000190=@maqpass4611


;ANNE MARIE EXPORTACAO IND E COM DE COSMETICOS LTDA
01589024000190=Vedis365


;ROSANGELA MARIA INCA
13180019000109=


;NPLOG LOGISTICA E DISTRIBUICAO LTDA
42735072000127=LARS18TH


;CONSORCIO CET - CURITIBA
55474282000150=1234

;EXPRESSO MERCADO AUTONOMO LTDA
45686140000101=


;WAG AUTOMOTIVA LTDA
45971790000190=1234

;VESUVIO TERMOPLASTICOS LTDA
41142694000189=12345678


;MULTILIT FIBROCIMENTO LTDA
72071541000626=72071541


;LION EQUIPAMENTOS LTDA
20646763000200=142800
